# Maintainer: Philip Müller <philm@manjarolinux.org>
# Co-Maintainer: Guinux <nuxgui@gmail.com>

pkgname=linux32-nvidiabl
_pkgname=nvidiabl
pkgver=0.76
pkgrel=1
epoch=
pkgdesc="Driver to adjust display backlight on modern mobile NVidia graphics adapters."
arch=('x86_64' 'i686')
url="https://github.com/guillaumezin/nvidiabl"
license=('GPL')
depends=()
makedepends=("linux32-headers")
optdepends=()
conflicts=(nvidia-bl)
options=()
install=nvidiabl.install
changelog=
source=(https://github.com/downloads/guillaumezin/nvidiabl/$_pkgname-$pkgver-source-only.dkms.tar.gz)

_extramodules=extramodules-3.2-MANJARO
_kernver="$(cat /usr/lib/modules/${_extramodules}/version)"

build() {
  cd "$srcdir/dkms_source_tree/"
  make KVER="${_kernver}"
}
  
package() {
  cd "$srcdir/dkms_source_tree/"
  MODPATH="${pkgdir}/usr/lib/modules/${_extramodules}/"
  install -d $MODPATH
  install -m 644 -c nvidiabl.ko $MODPATH
  sed -i -e "s/EXTRAMODULES='.*'/EXTRAMODULES='${_extramodules}'/" "${startdir}/nvidiabl.install"
  sed -i -e "s/VERSION='.*'/VERSION='linux32'/" "${startdir}/nvidiabl.install"
}

# vim:set ts=2 sw=2 et:
md5sums=('7ad7cd796102b1bf86e1f1e306089cd6')
